ARG
 OpenBabel06191816033D

 27 26  0  0  1  0  0  0  0  0999 V2000
   -2.7250    0.3700    2.2930 C   0  0  0  0  0  0  0  0  0  0  0  0
   -2.1190   -1.0400    2.2230 C   0  0  0  0  0  0  0  0  0  0  0  0
   -1.9770   -1.5320    0.7720 C   0  0  0  0  0  0  0  0  0  0  0  0
   -0.5510   -1.9560    0.3930 C   0  0  1  0  0  0  0  0  0  0  0  0
    0.4940   -0.9580    0.8660 C   0  0  0  0  0  0  0  0  0  0  0  0
    0.5900    0.1310    0.3020 O   0  0  0  0  0  0  0  0  0  0  0  0
   -0.2440   -3.2810    1.0560 N   0  0  0  0  0  0  0  0  0  0  0  0
    0.7540   -3.5270    1.0070 H   0  0  0  0  0  0  0  0  0  0  0  0
   -0.4450   -3.1780    2.0730 H   0  0  0  0  0  0  0  0  0  0  0  0
   -0.7950   -4.0830    0.7250 H   0  0  0  0  0  0  0  0  0  0  0  0
   -2.0990    1.2770    1.3180 N   0  0  0  0  0  0  0  0  0  0  0  0
   -1.9360    2.6030    1.5120 C   0  0  0  0  0  0  0  0  0  0  0  0
   -2.3440    3.2090    2.6290 N   0  0  0  0  0  0  0  0  0  0  0  0
   -1.3510    3.3400    0.5640 N   0  0  0  0  0  0  0  0  0  0  0  0
   -2.2170    4.2070    2.7650 H   0  0  0  0  0  0  0  0  0  0  0  0
   -2.7920    2.7100    3.3850 H   0  0  0  0  0  0  0  0  0  0  0  0
   -1.0150    2.9490   -0.3070 H   0  0  0  0  0  0  0  0  0  0  0  0
   -1.2170    4.3390    0.6810 H   0  0  0  0  0  0  0  0  0  0  0  0
   -1.7570    0.9120    0.4350 H   0  0  0  0  0  0  0  0  0  0  0  0
   -3.7731    0.3082    2.0868 H   0  0  0  0  0  0  0  0  0  0  0  0
   -2.5512    0.7609    3.2737 H   0  0  0  0  0  0  0  0  0  0  0  0
   -1.1512   -1.0236    2.6790 H   0  0  0  0  0  0  0  0  0  0  0  0
   -2.7764   -1.7094    2.7373 H   0  0  0  0  0  0  0  0  0  0  0  0
   -2.6251   -2.3726    0.6368 H   0  0  0  0  0  0  0  0  0  0  0  0
   -2.2334   -0.7081    0.1393 H   0  0  0  0  0  0  0  0  0  0  0  0
   -0.5096   -2.0169   -0.6745 H   0  0  0  0  0  0  0  0  0  0  0  0
    1.1178   -1.1924    1.6540 H   0  0  0  0  0  0  0  0  0  0  0  0
  1 20  1  0  0  0  0
  1 21  1  0  0  0  0
  2  1  1  0  0  0  0
  2 22  1  0  0  0  0
  2 23  1  0  0  0  0
  3  2  1  0  0  0  0
  3 24  1  0  0  0  0
  3 25  1  0  0  0  0
  4  3  1  0  0  0  0
  4  5  1  0  0  0  0
  4  7  1  0  0  0  0
  4 26  1  6  0  0  0
  5 27  1  0  0  0  0
  6  5  2  0  0  0  0
  7  9  1  0  0  0  0
  8  7  1  0  0  0  0
 10  7  1  0  0  0  0
 11 12  1  0  0  0  0
 11  1  1  0  0  0  0
 12 13  1  0  0  0  0
 13 15  1  0  0  0  0
 13 16  1  0  0  0  0
 14 18  1  0  0  0  0
 14 12  2  0  0  0  0
 17 14  1  0  0  0  0
 19 11  1  0  0  0  0
M  END
>  <MODEL>
1

>  <REMARK>
 VINA RESULT:      -4.4      0.000      0.000
  6 active torsions:
  status: ('A' for Active; 'I' for Inactive)
    1  A    between atoms: CA_5  and  N_1 
    2  A    between atoms: CA_5  and  C_6 
    3  A    between atoms: CA_5  and  CB_8 
    4  A    between atoms: CB_8  and  CG_9 
    5  A    between atoms: CG_9  and  CD_10 
    6  A    between atoms: CD_10  and  NE_11 
       I    between atoms: NE_11  and  CZ_12 
       I    between atoms: CZ_12  and  NH1_13 

>  <TORSDO>
F 6

$$$$
ARG
 OpenBabel06191816033D

 27 26  0  0  1  0  0  0  0  0999 V2000
   -0.2150    4.7080    3.0480 C   0  0  0  0  0  0  0  0  0  0  0  0
   -0.1080    3.4670    2.1490 C   0  0  0  0  0  0  0  0  0  0  0  0
   -0.7530    2.2300    2.8000 C   0  0  0  0  0  0  0  0  0  0  0  0
   -1.9500    1.6660    2.0200 C   0  0  1  0  0  0  0  0  0  0  0  0
   -3.2050    1.5790    2.8730 C   0  0  0  0  0  0  0  0  0  0  0  0
   -3.2430    2.1610    3.9560 O   0  0  0  0  0  0  0  0  0  0  0  0
   -2.2530    2.5890    0.8600 N   0  0  0  0  0  0  0  0  0  0  0  0
   -1.5110    2.5850    0.1460 H   0  0  0  0  0  0  0  0  0  0  0  0
   -3.0950    2.2160    0.3730 H   0  0  0  0  0  0  0  0  0  0  0  0
   -2.4630    3.5640    1.1080 H   0  0  0  0  0  0  0  0  0  0  0  0
   -1.4700    4.7140    3.8160 N   0  0  0  0  0  0  0  0  0  0  0  0
   -2.5820    5.3860    3.4480 C   0  0  0  0  0  0  0  0  0  0  0  0
   -2.6270    6.1190    2.3340 N   0  0  0  0  0  0  0  0  0  0  0  0
   -3.6730    5.3240    4.2160 N   0  0  0  0  0  0  0  0  0  0  0  0
   -3.4680    6.6210    2.0670 H   0  0  0  0  0  0  0  0  0  0  0  0
   -1.8370    6.2080    1.7100 H   0  0  0  0  0  0  0  0  0  0  0  0
   -3.7120    4.7860    5.0720 H   0  0  0  0  0  0  0  0  0  0  0  0
   -4.5220    5.8200    3.9650 H   0  0  0  0  0  0  0  0  0  0  0  0
   -1.5360    4.1860    4.6810 H   0  0  0  0  0  0  0  0  0  0  0  0
   -0.1785    5.5846    2.4355 H   0  0  0  0  0  0  0  0  0  0  0  0
    0.6008    4.6911    3.7402 H   0  0  0  0  0  0  0  0  0  0  0  0
   -0.6028    3.6677    1.2218 H   0  0  0  0  0  0  0  0  0  0  0  0
    0.9299    3.2576    1.9946 H   0  0  0  0  0  0  0  0  0  0  0  0
   -0.0099    1.4639    2.8761 H   0  0  0  0  0  0  0  0  0  0  0  0
   -1.1240    2.5405    3.7544 H   0  0  0  0  0  0  0  0  0  0  0  0
   -1.6859    0.6809    1.6962 H   0  0  0  0  0  0  0  0  0  0  0  0
   -4.0192    1.0357    2.5460 H   0  0  0  0  0  0  0  0  0  0  0  0
  1 11  1  0  0  0  0
  1 20  1  0  0  0  0
  1 21  1  0  0  0  0
  2  3  1  0  0  0  0
  2  1  1  0  0  0  0
  2 22  1  0  0  0  0
  2 23  1  0  0  0  0
  3 24  1  0  0  0  0
  3 25  1  0  0  0  0
  4  3  1  0  0  0  0
  4  5  1  0  0  0  0
  4 26  1  6  0  0  0
  5  6  2  0  0  0  0
  5 27  1  0  0  0  0
  7 10  1  0  0  0  0
  7  4  1  0  0  0  0
  8  7  1  0  0  0  0
  9  7  1  0  0  0  0
 11 19  1  0  0  0  0
 12 11  1  0  0  0  0
 12 14  1  0  0  0  0
 13 12  2  0  0  0  0
 14 17  1  0  0  0  0
 15 13  1  0  0  0  0
 16 13  1  0  0  0  0
 18 14  1  0  0  0  0
M  END
>  <REMARK>
 VINA RESULT:      -4.4      3.463      4.710
  6 active torsions:
  status: ('A' for Active; 'I' for Inactive)
    1  A    between atoms: CA_5  and  N_1 
    2  A    between atoms: CA_5  and  C_6 
    3  A    between atoms: CA_5  and  CB_8 
    4  A    between atoms: CB_8  and  CG_9 
    5  A    between atoms: CG_9  and  CD_10 
    6  A    between atoms: CD_10  and  NE_11 
       I    between atoms: NE_11  and  CZ_12 
       I    between atoms: CZ_12  and  NH1_13 

>  <TORSDO>
F 6

$$$$
ARG
 OpenBabel06191816033D

 27 26  0  0  1  0  0  0  0  0999 V2000
   -1.4400    2.4920    3.9370 C   0  0  0  0  0  0  0  0  0  0  0  0
   -2.0880    3.6150    4.7610 C   0  0  0  0  0  0  0  0  0  0  0  0
   -1.4350    4.9800    4.4840 C   0  0  0  0  0  0  0  0  0  0  0  0
   -2.3800    6.0060    3.8410 C   0  0  1  0  0  0  0  0  0  0  0  0
   -2.0180    6.2980    2.3940 C   0  0  0  0  0  0  0  0  0  0  0  0
   -0.8920    6.0200    1.9840 O   0  0  0  0  0  0  0  0  0  0  0  0
   -3.7860    5.4470    3.8530 N   0  0  0  0  0  0  0  0  0  0  0  0
   -3.8750    4.5870    3.2920 H   0  0  0  0  0  0  0  0  0  0  0  0
   -4.0000    5.1530    4.8290 H   0  0  0  0  0  0  0  0  0  0  0  0
   -4.5280    6.0990    3.5710 H   0  0  0  0  0  0  0  0  0  0  0  0
   -0.9690    2.9810    2.6330 N   0  0  0  0  0  0  0  0  0  0  0  0
   -1.6160    2.7720    1.4650 C   0  0  0  0  0  0  0  0  0  0  0  0
   -2.7590    2.0860    1.4050 N   0  0  0  0  0  0  0  0  0  0  0  0
   -1.1040    3.2620    0.3330 N   0  0  0  0  0  0  0  0  0  0  0  0
   -3.2370    1.9350    0.5220 H   0  0  0  0  0  0  0  0  0  0  0  0
   -3.1980    1.6900    2.2240 H   0  0  0  0  0  0  0  0  0  0  0  0
   -0.2440    3.7940    0.3030 H   0  0  0  0  0  0  0  0  0  0  0  0
   -1.5680    3.1200   -0.5590 H   0  0  0  0  0  0  0  0  0  0  0  0
   -0.1070    3.5130    2.5730 H   0  0  0  0  0  0  0  0  0  0  0  0
   -0.6075    2.0977    4.4814 H   0  0  0  0  0  0  0  0  0  0  0  0
   -2.1766    1.7352    3.7648 H   0  0  0  0  0  0  0  0  0  0  0  0
   -1.9828    3.3859    5.8009 H   0  0  0  0  0  0  0  0  0  0  0  0
   -3.1191    3.6781    4.4822 H   0  0  0  0  0  0  0  0  0  0  0  0
   -1.0855    5.3804    5.4127 H   0  0  0  0  0  0  0  0  0  0  0  0
   -0.6432    4.8081    3.7852 H   0  0  0  0  0  0  0  0  0  0  0  0
   -2.2988    6.9121    4.4043 H   0  0  0  0  0  0  0  0  0  0  0  0
   -2.7112    6.7260    1.7606 H   0  0  0  0  0  0  0  0  0  0  0  0
  1  2  1  0  0  0  0
  1 20  1  0  0  0  0
  1 21  1  0  0  0  0
  2 22  1  0  0  0  0
  2 23  1  0  0  0  0
  3  2  1  0  0  0  0
  3 24  1  0  0  0  0
  3 25  1  0  0  0  0
  4  7  1  0  0  0  0
  4  3  1  0  0  0  0
  4 26  1  1  0  0  0
  5  4  1  0  0  0  0
  5 27  1  0  0  0  0
  6  5  2  0  0  0  0
  7  9  1  0  0  0  0
  8  7  1  0  0  0  0
 10  7  1  0  0  0  0
 11  1  1  0  0  0  0
 12 11  1  0  0  0  0
 13 12  1  0  0  0  0
 13 16  1  0  0  0  0
 14 12  2  0  0  0  0
 15 13  1  0  0  0  0
 17 14  1  0  0  0  0
 18 14  1  0  0  0  0
 19 11  1  0  0  0  0
M  END
>  <REMARK>
 VINA RESULT:      -4.4      3.859      5.867
  6 active torsions:
  status: ('A' for Active; 'I' for Inactive)
    1  A    between atoms: CA_5  and  N_1 
    2  A    between atoms: CA_5  and  C_6 
    3  A    between atoms: CA_5  and  CB_8 
    4  A    between atoms: CB_8  and  CG_9 
    5  A    between atoms: CG_9  and  CD_10 
    6  A    between atoms: CD_10  and  NE_11 
       I    between atoms: NE_11  and  CZ_12 
       I    between atoms: CZ_12  and  NH1_13 

>  <TORSDO>
F 6

$$$$
ARG
 OpenBabel06191816033D

 27 26  0  0  1  0  0  0  0  0999 V2000
   -2.1180   -0.7880    1.5830 C   0  0  0  0  0  0  0  0  0  0  0  0
   -1.9300   -1.7590    0.4070 C   0  0  0  0  0  0  0  0  0  0  0  0
   -3.1900   -2.6040    0.1530 C   0  0  0  0  0  0  0  0  0  0  0  0
   -3.1890   -3.3370   -1.1960 C   0  0  1  0  0  0  0  0  0  0  0  0
   -4.3560   -2.9250   -2.0780 C   0  0  0  0  0  0  0  0  0  0  0  0
   -4.1510   -2.6270   -3.2540 O   0  0  0  0  0  0  0  0  0  0  0  0
   -1.9160   -2.9920   -1.9370 N   0  0  0  0  0  0  0  0  0  0  0  0
   -1.1100   -2.8770   -1.3070 H   0  0  0  0  0  0  0  0  0  0  0  0
   -1.6710   -3.8060   -2.5390 H   0  0  0  0  0  0  0  0  0  0  0  0
   -1.9670   -2.1720   -2.5540 H   0  0  0  0  0  0  0  0  0  0  0  0
   -1.7510    0.5870    1.2130 N   0  0  0  0  0  0  0  0  0  0  0  0
   -2.4840    1.6780    1.5250 C   0  0  0  0  0  0  0  0  0  0  0  0
   -3.6280    1.5880    2.2070 N   0  0  0  0  0  0  0  0  0  0  0  0
   -2.0620    2.8870    1.1440 N   0  0  0  0  0  0  0  0  0  0  0  0
   -4.1710    2.4150    2.4360 H   0  0  0  0  0  0  0  0  0  0  0  0
   -4.0020    0.7060    2.5250 H   0  0  0  0  0  0  0  0  0  0  0  0
   -1.2030    3.0310    0.6270 H   0  0  0  0  0  0  0  0  0  0  0  0
   -2.5920    3.7230    1.3630 H   0  0  0  0  0  0  0  0  0  0  0  0
   -0.8980    0.7610    0.6910 H   0  0  0  0  0  0  0  0  0  0  0  0
   -1.5006   -1.1051    2.3974 H   0  0  0  0  0  0  0  0  0  0  0  0
   -3.1511   -0.7954    1.8616 H   0  0  0  0  0  0  0  0  0  0  0  0
   -1.7082   -1.1952   -0.4749 H   0  0  0  0  0  0  0  0  0  0  0  0
   -1.1285   -2.4244    0.6516 H   0  0  0  0  0  0  0  0  0  0  0  0
   -3.2687   -3.3332    0.9321 H   0  0  0  0  0  0  0  0  0  0  0  0
   -4.0185   -1.9271    0.1368 H   0  0  0  0  0  0  0  0  0  0  0  0
   -3.2672   -4.3842   -0.9906 H   0  0  0  0  0  0  0  0  0  0  0  0
   -5.3132   -2.8954   -1.6934 H   0  0  0  0  0  0  0  0  0  0  0  0
  1 20  1  0  0  0  0
  1 21  1  0  0  0  0
  2  1  1  0  0  0  0
  2 22  1  0  0  0  0
  2 23  1  0  0  0  0
  3  2  1  0  0  0  0
  3 24  1  0  0  0  0
  3 25  1  0  0  0  0
  4  3  1  0  0  0  0
  4 26  1  1  0  0  0
  5  4  1  0  0  0  0
  5 27  1  0  0  0  0
  6  5  2  0  0  0  0
  7  8  1  0  0  0  0
  7  4  1  0  0  0  0
  9  7  1  0  0  0  0
 10  7  1  0  0  0  0
 11 12  1  0  0  0  0
 11  1  1  0  0  0  0
 12 13  1  0  0  0  0
 13 15  1  0  0  0  0
 13 16  1  0  0  0  0
 14 18  1  0  0  0  0
 14 12  2  0  0  0  0
 17 14  1  0  0  0  0
 19 11  1  0  0  0  0
M  END
>  <REMARK>
 VINA RESULT:      -4.3      2.838      3.280
  6 active torsions:
  status: ('A' for Active; 'I' for Inactive)
    1  A    between atoms: CA_5  and  N_1 
    2  A    between atoms: CA_5  and  C_6 
    3  A    between atoms: CA_5  and  CB_8 
    4  A    between atoms: CB_8  and  CG_9 
    5  A    between atoms: CG_9  and  CD_10 
    6  A    between atoms: CD_10  and  NE_11 
       I    between atoms: NE_11  and  CZ_12 
       I    between atoms: CZ_12  and  NH1_13 

>  <TORSDO>
F 6

$$$$
ARG
 OpenBabel06191816033D

 27 26  0  0  1  0  0  0  0  0999 V2000
   -0.8210   -1.4050    0.7590 C   0  0  0  0  0  0  0  0  0  0  0  0
   -1.2240   -0.8700    2.1410 C   0  0  0  0  0  0  0  0  0  0  0  0
   -1.1670    0.6660    2.2020 C   0  0  0  0  0  0  0  0  0  0  0  0
   -2.5140    1.3530    1.9370 C   0  0  1  0  0  0  0  0  0  0  0  0
   -3.1160    1.9490    3.1990 C   0  0  0  0  0  0  0  0  0  0  0  0
   -4.1320    1.4500    3.6790 O   0  0  0  0  0  0  0  0  0  0  0  0
   -2.2980    2.4860    0.9580 N   0  0  0  0  0  0  0  0  0  0  0  0
   -1.3280    2.5360    0.6170 H   0  0  0  0  0  0  0  0  0  0  0  0
   -2.8700    2.2820    0.1100 H   0  0  0  0  0  0  0  0  0  0  0  0
   -2.5780    3.4180    1.2860 H   0  0  0  0  0  0  0  0  0  0  0  0
   -1.9880   -1.5580   -0.1240 N   0  0  0  0  0  0  0  0  0  0  0  0
   -2.0390   -2.4040   -1.1750 C   0  0  0  0  0  0  0  0  0  0  0  0
   -1.0070   -3.1840   -1.5040 N   0  0  0  0  0  0  0  0  0  0  0  0
   -3.1490   -2.4700   -1.9140 N   0  0  0  0  0  0  0  0  0  0  0  0
   -1.0550   -3.8160   -2.2960 H   0  0  0  0  0  0  0  0  0  0  0  0
   -0.1390   -3.1830   -0.9860 H   0  0  0  0  0  0  0  0  0  0  0  0
   -3.9710   -1.9110   -1.7220 H   0  0  0  0  0  0  0  0  0  0  0  0
   -3.2160   -3.0960   -2.7100 H   0  0  0  0  0  0  0  0  0  0  0  0
   -2.8240   -1.0070    0.0430 H   0  0  0  0  0  0  0  0  0  0  0  0
   -0.1324   -0.7207    0.3090 H   0  0  0  0  0  0  0  0  0  0  0  0
   -0.3724   -2.3675    0.8905 H   0  0  0  0  0  0  0  0  0  0  0  0
   -0.5559   -1.2701    2.8748 H   0  0  0  0  0  0  0  0  0  0  0  0
   -2.2328   -1.1716    2.3314 H   0  0  0  0  0  0  0  0  0  0  0  0
   -0.8299    0.9515    3.1765 H   0  0  0  0  0  0  0  0  0  0  0  0
   -0.5012    0.9816    1.4261 H   0  0  0  0  0  0  0  0  0  0  0  0
   -3.1828    0.6099    1.5557 H   0  0  0  0  0  0  0  0  0  0  0  0
   -2.6753    2.7662    3.6495 H   0  0  0  0  0  0  0  0  0  0  0  0
  1  2  1  0  0  0  0
  1 20  1  0  0  0  0
  1 21  1  0  0  0  0
  2  3  1  0  0  0  0
  2 22  1  0  0  0  0
  2 23  1  0  0  0  0
  3 24  1  0  0  0  0
  3 25  1  0  0  0  0
  4  3  1  0  0  0  0
  4  5  1  0  0  0  0
  4 26  1  6  0  0  0
  5  6  2  0  0  0  0
  5 27  1  0  0  0  0
  7 10  1  0  0  0  0
  7  4  1  0  0  0  0
  8  7  1  0  0  0  0
  9  7  1  0  0  0  0
 11 19  1  0  0  0  0
 11  1  1  0  0  0  0
 12 11  1  0  0  0  0
 13 12  1  0  0  0  0
 13 16  1  0  0  0  0
 14 17  1  0  0  0  0
 14 12  2  0  0  0  0
 15 13  1  0  0  0  0
 18 14  1  0  0  0  0
M  END
>  <REMARK>
 VINA RESULT:      -4.3      2.740      5.044
  6 active torsions:
  status: ('A' for Active; 'I' for Inactive)
    1  A    between atoms: CA_5  and  N_1 
    2  A    between atoms: CA_5  and  C_6 
    3  A    between atoms: CA_5  and  CB_8 
    4  A    between atoms: CB_8  and  CG_9 
    5  A    between atoms: CG_9  and  CD_10 
    6  A    between atoms: CD_10  and  NE_11 
       I    between atoms: NE_11  and  CZ_12 
       I    between atoms: CZ_12  and  NH1_13 

>  <TORSDO>
F 6

$$$$
ARG
 OpenBabel06191816033D

 27 26  0  0  1  0  0  0  0  0999 V2000
   -0.9010    0.5550    3.8020 C   0  0  0  0  0  0  0  0  0  0  0  0
    0.5530    0.1380    3.5350 C   0  0  0  0  0  0  0  0  0  0  0  0
    1.3120    1.1950    2.7130 C   0  0  0  0  0  0  0  0  0  0  0  0
    1.6950    0.7300    1.3000 C   0  0  1  0  0  0  0  0  0  0  0  0
    1.1320   -0.6430    0.9710 C   0  0  0  0  0  0  0  0  0  0  0  0
    0.2360   -0.7450    0.1350 O   0  0  0  0  0  0  0  0  0  0  0  0
    1.1250    1.7070    0.2950 N   0  0  0  0  0  0  0  0  0  0  0  0
    0.3780    1.2930   -0.2790 H   0  0  0  0  0  0  0  0  0  0  0  0
    0.6610    2.4720    0.8290 H   0  0  0  0  0  0  0  0  0  0  0  0
    1.8080    2.1540   -0.3290 H   0  0  0  0  0  0  0  0  0  0  0  0
   -1.3300    1.6310    2.8950 N   0  0  0  0  0  0  0  0  0  0  0  0
   -2.0430    1.4320    1.7650 C   0  0  0  0  0  0  0  0  0  0  0  0
   -2.4180    0.2120    1.3730 N   0  0  0  0  0  0  0  0  0  0  0  0
   -2.3860    2.4790    1.0100 N   0  0  0  0  0  0  0  0  0  0  0  0
   -2.9520    0.0740    0.5210 H   0  0  0  0  0  0  0  0  0  0  0  0
   -2.1910   -0.6200    1.8980 H   0  0  0  0  0  0  0  0  0  0  0  0
   -2.1390    3.4310    1.2470 H   0  0  0  0  0  0  0  0  0  0  0  0
   -2.9200    2.3590    0.1550 H   0  0  0  0  0  0  0  0  0  0  0  0
   -1.0930    2.5950    3.1060 H   0  0  0  0  0  0  0  0  0  0  0  0
   -1.5374   -0.2934    3.6601 H   0  0  0  0  0  0  0  0  0  0  0  0
   -0.9666    0.9175    4.8066 H   0  0  0  0  0  0  0  0  0  0  0  0
    1.0522    0.0046    4.4720 H   0  0  0  0  0  0  0  0  0  0  0  0
    0.5388   -0.7720    2.9723 H   0  0  0  0  0  0  0  0  0  0  0  0
    0.6916    2.0624    2.6253 H   0  0  0  0  0  0  0  0  0  0  0  0
    2.2262    1.3935    3.2323 H   0  0  0  0  0  0  0  0  0  0  0  0
    2.7631    0.6816    1.2579 H   0  0  0  0  0  0  0  0  0  0  0  0
    1.4988   -1.4829    1.4454 H   0  0  0  0  0  0  0  0  0  0  0  0
  1 20  1  0  0  0  0
  1 21  1  0  0  0  0
  2  1  1  0  0  0  0
  2 22  1  0  0  0  0
  2 23  1  0  0  0  0
  3  2  1  0  0  0  0
  3 24  1  0  0  0  0
  3 25  1  0  0  0  0
  4  3  1  0  0  0  0
  4 26  1  6  0  0  0
  5  4  1  0  0  0  0
  5 27  1  0  0  0  0
  6  5  2  0  0  0  0
  7  9  1  0  0  0  0
  7  4  1  0  0  0  0
  8  7  1  0  0  0  0
 10  7  1  0  0  0  0
 11 19  1  0  0  0  0
 11  1  1  0  0  0  0
 12 11  1  0  0  0  0
 13 12  1  0  0  0  0
 13 16  1  0  0  0  0
 14 17  1  0  0  0  0
 14 12  2  0  0  0  0
 15 13  1  0  0  0  0
 18 14  1  0  0  0  0
M  END
>  <REMARK>
 VINA RESULT:      -4.3      2.114      2.969
  6 active torsions:
  status: ('A' for Active; 'I' for Inactive)
    1  A    between atoms: CA_5  and  N_1 
    2  A    between atoms: CA_5  and  C_6 
    3  A    between atoms: CA_5  and  CB_8 
    4  A    between atoms: CB_8  and  CG_9 
    5  A    between atoms: CG_9  and  CD_10 
    6  A    between atoms: CD_10  and  NE_11 
       I    between atoms: NE_11  and  CZ_12 
       I    between atoms: CZ_12  and  NH1_13 

>  <TORSDO>
F 6

$$$$
ARG
 OpenBabel06191816033D

 27 26  0  0  1  0  0  0  0  0999 V2000
   -2.1870   -0.6640    1.9680 C   0  0  0  0  0  0  0  0  0  0  0  0
   -2.1890    0.8710    2.0360 C   0  0  0  0  0  0  0  0  0  0  0  0
   -0.9310    1.4160    2.7350 C   0  0  0  0  0  0  0  0  0  0  0  0
   -0.0220    2.2520    1.8220 C   0  0  1  0  0  0  0  0  0  0  0  0
    1.0480    1.4110    1.1460 C   0  0  0  0  0  0  0  0  0  0  0  0
    0.7770    0.8050    0.1100 O   0  0  0  0  0  0  0  0  0  0  0  0
   -0.8670    2.8740    0.7320 N   0  0  0  0  0  0  0  0  0  0  0  0
   -0.3010    3.3550    0.0190 H   0  0  0  0  0  0  0  0  0  0  0  0
   -1.3410    2.1000    0.2210 H   0  0  0  0  0  0  0  0  0  0  0  0
   -1.6050    3.5140    1.0500 H   0  0  0  0  0  0  0  0  0  0  0  0
   -2.3820   -1.1440    0.5910 N   0  0  0  0  0  0  0  0  0  0  0  0
   -1.4500   -1.8180   -0.1170 C   0  0  0  0  0  0  0  0  0  0  0  0
   -0.2490   -2.1040    0.3910 N   0  0  0  0  0  0  0  0  0  0  0  0
   -1.7270   -2.2140   -1.3620 N   0  0  0  0  0  0  0  0  0  0  0  0
    0.4450   -2.6110   -0.1500 H   0  0  0  0  0  0  0  0  0  0  0  0
    0.0240   -1.8340    1.3250 H   0  0  0  0  0  0  0  0  0  0  0  0
   -2.6170   -2.0350   -1.8100 H   0  0  0  0  0  0  0  0  0  0  0  0
   -1.0460   -2.7210   -1.9170 H   0  0  0  0  0  0  0  0  0  0  0  0
   -3.2630   -0.9750    0.1160 H   0  0  0  0  0  0  0  0  0  0  0  0
   -1.2488   -1.0268    2.3329 H   0  0  0  0  0  0  0  0  0  0  0  0
   -2.9956   -1.0272    2.5673 H   0  0  0  0  0  0  0  0  0  0  0  0
   -3.0531    1.1921    2.5792 H   0  0  0  0  0  0  0  0  0  0  0  0
   -2.2012    1.2473    1.0344 H   0  0  0  0  0  0  0  0  0  0  0  0
   -1.2408    2.0299    3.5547 H   0  0  0  0  0  0  0  0  0  0  0  0
   -0.3591    0.5678    3.0487 H   0  0  0  0  0  0  0  0  0  0  0  0
    0.4563    2.9880    2.4339 H   0  0  0  0  0  0  0  0  0  0  0  0
    1.9945    1.3486    1.5526 H   0  0  0  0  0  0  0  0  0  0  0  0
  1  2  1  0  0  0  0
  1 20  1  0  0  0  0
  1 21  1  0  0  0  0
  2  3  1  0  0  0  0
  2 22  1  0  0  0  0
  2 23  1  0  0  0  0
  3 24  1  0  0  0  0
  3 25  1  0  0  0  0
  4  3  1  0  0  0  0
  4 26  1  1  0  0  0
  5  4  1  0  0  0  0
  5 27  1  0  0  0  0
  6  5  2  0  0  0  0
  7 10  1  0  0  0  0
  7  4  1  0  0  0  0
  8  7  1  0  0  0  0
  9  7  1  0  0  0  0
 11  1  1  0  0  0  0
 12 13  1  0  0  0  0
 12 11  1  0  0  0  0
 13 16  1  0  0  0  0
 14 12  2  0  0  0  0
 15 13  1  0  0  0  0
 17 14  1  0  0  0  0
 18 14  1  0  0  0  0
 19 11  1  0  0  0  0
M  END
>  <REMARK>
 VINA RESULT:      -4.3      1.763      4.100
  6 active torsions:
  status: ('A' for Active; 'I' for Inactive)
    1  A    between atoms: CA_5  and  N_1 
    2  A    between atoms: CA_5  and  C_6 
    3  A    between atoms: CA_5  and  CB_8 
    4  A    between atoms: CB_8  and  CG_9 
    5  A    between atoms: CG_9  and  CD_10 
    6  A    between atoms: CD_10  and  NE_11 
       I    between atoms: NE_11  and  CZ_12 
       I    between atoms: CZ_12  and  NH1_13 

>  <TORSDO>
F 6

$$$$
ARG
 OpenBabel06191816033D

 27 26  0  0  1  0  0  0  0  0999 V2000
   -0.1720    0.9860    2.2060 C   0  0  0  0  0  0  0  0  0  0  0  0
    1.1210    0.6100    1.4670 C   0  0  0  0  0  0  0  0  0  0  0  0
    1.0430   -0.7990    0.8540 C   0  0  0  0  0  0  0  0  0  0  0  0
   -0.1200   -1.6480    1.3860 C   0  0  1  0  0  0  0  0  0  0  0  0
   -0.9860   -2.2070    0.2690 C   0  0  0  0  0  0  0  0  0  0  0  0
   -0.9580   -1.6780   -0.8410 O   0  0  0  0  0  0  0  0  0  0  0  0
    0.4460   -2.8240    2.1520 N   0  0  0  0  0  0  0  0  0  0  0  0
    0.4420   -2.6720    3.1710 H   0  0  0  0  0  0  0  0  0  0  0  0
   -0.1910   -3.6350    2.0000 H   0  0  0  0  0  0  0  0  0  0  0  0
    1.3850   -3.1290    1.8710 H   0  0  0  0  0  0  0  0  0  0  0  0
   -0.4730    2.4200    2.0720 N   0  0  0  0  0  0  0  0  0  0  0  0
   -1.6300    2.9090    1.5770 C   0  0  0  0  0  0  0  0  0  0  0  0
   -2.6120    2.1090    1.1560 N   0  0  0  0  0  0  0  0  0  0  0  0
   -1.8070    4.2310    1.5000 N   0  0  0  0  0  0  0  0  0  0  0  0
   -3.4780    2.4880    0.7840 H   0  0  0  0  0  0  0  0  0  0  0  0
   -2.5420    1.1020    1.1870 H   0  0  0  0  0  0  0  0  0  0  0  0
   -1.1080    4.8970    1.8020 H   0  0  0  0  0  0  0  0  0  0  0  0
   -2.6650    4.6270    1.1310 H   0  0  0  0  0  0  0  0  0  0  0  0
    0.2110    3.1100    2.3640 H   0  0  0  0  0  0  0  0  0  0  0  0
   -0.0605    0.7497    3.2436 H   0  0  0  0  0  0  0  0  0  0  0  0
   -0.9788    0.4321    1.7734 H   0  0  0  0  0  0  0  0  0  0  0  0
    1.2904    1.3190    0.6837 H   0  0  0  0  0  0  0  0  0  0  0  0
    1.9225    0.6191    2.1758 H   0  0  0  0  0  0  0  0  0  0  0  0
    0.9297   -0.6992   -0.2053 H   0  0  0  0  0  0  0  0  0  0  0  0
    1.9455   -1.3053    1.1260 H   0  0  0  0  0  0  0  0  0  0  0  0
   -0.7221   -1.0138    2.0025 H   0  0  0  0  0  0  0  0  0  0  0  0
   -1.5927   -3.0240    0.4406 H   0  0  0  0  0  0  0  0  0  0  0  0
  1 20  1  0  0  0  0
  1 21  1  0  0  0  0
  2  1  1  0  0  0  0
  2 22  1  0  0  0  0
  2 23  1  0  0  0  0
  3  4  1  0  0  0  0
  3  2  1  0  0  0  0
  3 24  1  0  0  0  0
  3 25  1  0  0  0  0
  4  7  1  0  0  0  0
  4 26  1  1  0  0  0
  5  4  1  0  0  0  0
  5 27  1  0  0  0  0
  6  5  2  0  0  0  0
  7  8  1  0  0  0  0
  9  7  1  0  0  0  0
 10  7  1  0  0  0  0
 11  1  1  0  0  0  0
 11 19  1  0  0  0  0
 12 11  1  0  0  0  0
 13 16  1  0  0  0  0
 13 12  2  0  0  0  0
 14 12  1  0  0  0  0
 14 17  1  0  0  0  0
 15 13  1  0  0  0  0
 18 14  1  0  0  0  0
M  END
>  <REMARK>
 VINA RESULT:      -4.1      1.617      2.229
  6 active torsions:
  status: ('A' for Active; 'I' for Inactive)
    1  A    between atoms: CA_5  and  N_1 
    2  A    between atoms: CA_5  and  C_6 
    3  A    between atoms: CA_5  and  CB_8 
    4  A    between atoms: CB_8  and  CG_9 
    5  A    between atoms: CG_9  and  CD_10 
    6  A    between atoms: CD_10  and  NE_11 
       I    between atoms: NE_11  and  CZ_12 
       I    between atoms: CZ_12  and  NH1_13 

>  <TORSDO>
F 6

$$$$
ARG
 OpenBabel06191816033D

 27 26  0  0  1  0  0  0  0  0999 V2000
   -1.9770   -2.2630    0.9500 C   0  0  0  0  0  0  0  0  0  0  0  0
   -1.2910   -0.9130    1.2080 C   0  0  0  0  0  0  0  0  0  0  0  0
    0.2070   -0.9540    0.8610 C   0  0  0  0  0  0  0  0  0  0  0  0
    0.9990    0.2600    1.3670 C   0  0  1  0  0  0  0  0  0  0  0  0
    2.4750   -0.0510    1.5550 C   0  0  0  0  0  0  0  0  0  0  0  0
    2.8340   -0.7240    2.5200 O   0  0  0  0  0  0  0  0  0  0  0  0
    0.8960    1.3690    0.3440 N   0  0  0  0  0  0  0  0  0  0  0  0
    0.4660    2.2230    0.7270 H   0  0  0  0  0  0  0  0  0  0  0  0
    1.8660    1.6510    0.0860 H   0  0  0  0  0  0  0  0  0  0  0  0
    0.4170    1.1260   -0.5320 H   0  0  0  0  0  0  0  0  0  0  0  0
   -2.8200   -2.2200   -0.2540 N   0  0  0  0  0  0  0  0  0  0  0  0
   -2.4450   -2.6960   -1.4610 C   0  0  0  0  0  0  0  0  0  0  0  0
   -1.2490   -3.2540   -1.6590 N   0  0  0  0  0  0  0  0  0  0  0  0
   -3.2880   -2.6120   -2.4940 N   0  0  0  0  0  0  0  0  0  0  0  0
   -0.9760   -3.6080   -2.5710 H   0  0  0  0  0  0  0  0  0  0  0  0
   -0.5660   -3.3490   -0.9210 H   0  0  0  0  0  0  0  0  0  0  0  0
   -4.2120   -2.2050   -2.4170 H   0  0  0  0  0  0  0  0  0  0  0  0
   -3.0330   -2.9600   -3.4120 H   0  0  0  0  0  0  0  0  0  0  0  0
   -3.7500   -1.8140   -0.2080 H   0  0  0  0  0  0  0  0  0  0  0  0
   -1.2267   -3.0150    0.8219 H   0  0  0  0  0  0  0  0  0  0  0  0
   -2.6025   -2.4865    1.7889 H   0  0  0  0  0  0  0  0  0  0  0  0
   -1.7645   -0.1643    0.6079 H   0  0  0  0  0  0  0  0  0  0  0  0
   -1.3835   -0.6883    2.2500 H   0  0  0  0  0  0  0  0  0  0  0  0
    0.3046   -0.9994   -0.2036 H   0  0  0  0  0  0  0  0  0  0  0  0
    0.6143   -1.8146    1.3493 H   0  0  0  0  0  0  0  0  0  0  0  0
    0.5843    0.5408    2.3125 H   0  0  0  0  0  0  0  0  0  0  0  0
    3.1706    0.2998    0.8782 H   0  0  0  0  0  0  0  0  0  0  0  0
  1  2  1  0  0  0  0
  1 20  1  0  0  0  0
  1 21  1  0  0  0  0
  2 22  1  0  0  0  0
  2 23  1  0  0  0  0
  3  2  1  0  0  0  0
  3  4  1  0  0  0  0
  3 24  1  0  0  0  0
  3 25  1  0  0  0  0
  4  5  1  0  0  0  0
  4 26  1  1  0  0  0
  5  6  2  0  0  0  0
  5 27  1  0  0  0  0
  7  8  1  0  0  0  0
  7  4  1  0  0  0  0
  9  7  1  0  0  0  0
 10  7  1  0  0  0  0
 11 19  1  0  0  0  0
 11  1  1  0  0  0  0
 12 11  1  0  0  0  0
 13 12  1  0  0  0  0
 13 16  1  0  0  0  0
 14 17  1  0  0  0  0
 14 12  2  0  0  0  0
 15 13  1  0  0  0  0
 18 14  1  0  0  0  0
M  END
>  <REMARK>
 VINA RESULT:      -4.0      2.680      4.533
  6 active torsions:
  status: ('A' for Active; 'I' for Inactive)
    1  A    between atoms: CA_5  and  N_1 
    2  A    between atoms: CA_5  and  C_6 
    3  A    between atoms: CA_5  and  CB_8 
    4  A    between atoms: CB_8  and  CG_9 
    5  A    between atoms: CG_9  and  CD_10 
    6  A    between atoms: CD_10  and  NE_11 
       I    between atoms: NE_11  and  CZ_12 
       I    between atoms: CZ_12  and  NH1_13 

>  <TORSDO>
F 6

$$$$
ARG
 OpenBabel06191816033D

 27 26  0  0  1  0  0  0  0  0999 V2000
   -2.7860    0.2930    2.2940 C   0  0  0  0  0  0  0  0  0  0  0  0
   -2.3650   -1.1690    2.0830 C   0  0  0  0  0  0  0  0  0  0  0  0
   -1.3640   -1.3180    0.9240 C   0  0  0  0  0  0  0  0  0  0  0  0
   -1.8290   -2.2710   -0.1850 C   0  0  1  0  0  0  0  0  0  0  0  0
   -1.4040   -3.7080    0.0720 C   0  0  0  0  0  0  0  0  0  0  0  0
   -2.1790   -4.4770    0.6380 O   0  0  0  0  0  0  0  0  0  0  0  0
   -3.3410   -2.2490   -0.2440 N   0  0  0  0  0  0  0  0  0  0  0  0
   -3.7150   -1.3130   -0.4540 H   0  0  0  0  0  0  0  0  0  0  0  0
   -3.6330   -2.8410   -1.0500 H   0  0  0  0  0  0  0  0  0  0  0  0
   -3.8250   -2.6170    0.5830 H   0  0  0  0  0  0  0  0  0  0  0  0
   -2.1310    1.1890    1.3280 N   0  0  0  0  0  0  0  0  0  0  0  0
   -1.9730    2.5170    1.5120 C   0  0  0  0  0  0  0  0  0  0  0  0
   -2.4130    3.1350    2.6100 N   0  0  0  0  0  0  0  0  0  0  0  0
   -1.3600    3.2440    0.5740 N   0  0  0  0  0  0  0  0  0  0  0  0
   -2.2900    4.1350    2.7380 H   0  0  0  0  0  0  0  0  0  0  0  0
   -2.8840    2.6450    3.3570 H   0  0  0  0  0  0  0  0  0  0  0  0
   -0.9980    2.8430   -0.2820 H   0  0  0  0  0  0  0  0  0  0  0  0
   -1.2280    4.2440    0.6840 H   0  0  0  0  0  0  0  0  0  0  0  0
   -1.7620    0.8150    0.4600 H   0  0  0  0  0  0  0  0  0  0  0  0
   -3.8466    0.3697    2.1752 H   0  0  0  0  0  0  0  0  0  0  0  0
   -2.4900    0.5882    3.2790 H   0  0  0  0  0  0  0  0  0  0  0  0
   -1.9100   -1.5307    2.9813 H   0  0  0  0  0  0  0  0  0  0  0  0
   -3.2405   -1.7335    1.8387 H   0  0  0  0  0  0  0  0  0  0  0  0
   -1.2035   -0.3523    0.4921 H   0  0  0  0  0  0  0  0  0  0  0  0
   -0.4715   -1.7381    1.3385 H   0  0  0  0  0  0  0  0  0  0  0  0
   -1.3825   -1.9393   -1.0991 H   0  0  0  0  0  0  0  0  0  0  0  0
   -0.4720   -4.0357   -0.2263 H   0  0  0  0  0  0  0  0  0  0  0  0
  1 20  1  0  0  0  0
  1 21  1  0  0  0  0
  2  1  1  0  0  0  0
  2 22  1  0  0  0  0
  2 23  1  0  0  0  0
  3  2  1  0  0  0  0
  3 24  1  0  0  0  0
  3 25  1  0  0  0  0
  4  5  1  0  0  0  0
  4  3  1  0  0  0  0
  4 26  1  6  0  0  0
  5  6  2  0  0  0  0
  5 27  1  0  0  0  0
  7  4  1  0  0  0  0
  7 10  1  0  0  0  0
  8  7  1  0  0  0  0
  9  7  1  0  0  0  0
 11 12  1  0  0  0  0
 11  1  1  0  0  0  0
 12 13  1  0  0  0  0
 13 15  1  0  0  0  0
 13 16  1  0  0  0  0
 14 18  1  0  0  0  0
 14 12  2  0  0  0  0
 17 14  1  0  0  0  0
 19 11  1  0  0  0  0
M  END
>  <ODEL 1>
0

>  <REMARK>
 VINA RESULT:      -3.8      2.074      2.253
  6 active torsions:
  status: ('A' for Active; 'I' for Inactive)
    1  A    between atoms: CA_5  and  N_1 
    2  A    between atoms: CA_5  and  C_6 
    3  A    between atoms: CA_5  and  CB_8 
    4  A    between atoms: CB_8  and  CG_9 
    5  A    between atoms: CG_9  and  CD_10 
    6  A    between atoms: CD_10  and  NE_11 
       I    between atoms: NE_11  and  CZ_12 
       I    between atoms: CZ_12  and  NH1_13 

>  <TORSDO>
F 6

$$$$
ARG
 OpenBabel06191816033D

 27 26  0  0  1  0  0  0  0  0999 V2000
   -2.3880   -2.3100   -0.8610 C   0  0  0  0  0  0  0  0  0  0  0  0
   -1.4040   -3.4840   -0.7480 C   0  0  0  0  0  0  0  0  0  0  0  0
   -1.7070   -4.5890   -1.7750 C   0  0  0  0  0  0  0  0  0  0  0  0
   -1.9090   -5.9790   -1.1560 C   0  0  1  0  0  0  0  0  0  0  0  0
   -3.3460   -6.4600   -1.2720 C   0  0  0  0  0  0  0  0  0  0  0  0
   -4.2520   -5.6370   -1.3940 O   0  0  0  0  0  0  0  0  0  0  0  0
   -1.0380   -6.9720   -1.8950 N   0  0  0  0  0  0  0  0  0  0  0  0
   -0.8320   -6.6770   -2.8600 H   0  0  0  0  0  0  0  0  0  0  0  0
   -0.1120   -6.9930   -1.4180 H   0  0  0  0  0  0  0  0  0  0  0  0
   -1.3820   -7.9390   -1.9150 H   0  0  0  0  0  0  0  0  0  0  0  0
   -3.7810   -2.7760   -0.9300 N   0  0  0  0  0  0  0  0  0  0  0  0
   -4.6680   -2.6690    0.0840 C   0  0  0  0  0  0  0  0  0  0  0  0
   -4.3380   -2.1220    1.2550 N   0  0  0  0  0  0  0  0  0  0  0  0
   -5.9140   -3.1220   -0.0810 N   0  0  0  0  0  0  0  0  0  0  0  0
   -5.0120   -2.0470    2.0110 H   0  0  0  0  0  0  0  0  0  0  0  0
   -3.4130   -1.7600    1.4440 H   0  0  0  0  0  0  0  0  0  0  0  0
   -6.2350   -3.5450   -0.9420 H   0  0  0  0  0  0  0  0  0  0  0  0
   -6.6000   -3.0560    0.6630 H   0  0  0  0  0  0  0  0  0  0  0  0
   -4.1300   -3.2080   -1.7790 H   0  0  0  0  0  0  0  0  0  0  0  0
   -2.2751   -1.6786   -0.0046 H   0  0  0  0  0  0  0  0  0  0  0  0
   -2.1690   -1.7752   -1.7615 H   0  0  0  0  0  0  0  0  0  0  0  0
   -0.4115   -3.1204   -0.9141 H   0  0  0  0  0  0  0  0  0  0  0  0
   -1.5023   -3.9055    0.2306 H   0  0  0  0  0  0  0  0  0  0  0  0
   -2.5992   -4.3227   -2.3022 H   0  0  0  0  0  0  0  0  0  0  0  0
   -0.8536   -4.6572   -2.4168 H   0  0  0  0  0  0  0  0  0  0  0  0
   -1.6536   -5.9072   -0.1194 H   0  0  0  0  0  0  0  0  0  0  0  0
   -3.5600   -7.4693   -1.2486 H   0  0  0  0  0  0  0  0  0  0  0  0
  1  2  1  0  0  0  0
  1 20  1  0  0  0  0
  1 21  1  0  0  0  0
  2 22  1  0  0  0  0
  2 23  1  0  0  0  0
  3  4  1  0  0  0  0
  3  2  1  0  0  0  0
  3 24  1  0  0  0  0
  3 25  1  0  0  0  0
  4 26  1  1  0  0  0
  5  4  1  0  0  0  0
  5 27  1  0  0  0  0
  6  5  2  0  0  0  0
  7  9  1  0  0  0  0
  7  4  1  0  0  0  0
  8  7  1  0  0  0  0
 10  7  1  0  0  0  0
 11  1  1  0  0  0  0
 11 12  1  0  0  0  0
 12 13  1  0  0  0  0
 13 16  1  0  0  0  0
 13 15  1  0  0  0  0
 14 12  2  0  0  0  0
 14 18  1  0  0  0  0
 17 14  1  0  0  0  0
 19 11  1  0  0  0  0
M  END
>  <ODEL 1>
1

>  <REMARK>
 VINA RESULT:      -3.8      4.721      5.720
  6 active torsions:
  status: ('A' for Active; 'I' for Inactive)
    1  A    between atoms: CA_5  and  N_1 
    2  A    between atoms: CA_5  and  C_6 
    3  A    between atoms: CA_5  and  CB_8 
    4  A    between atoms: CB_8  and  CG_9 
    5  A    between atoms: CG_9  and  CD_10 
    6  A    between atoms: CD_10  and  NE_11 
       I    between atoms: NE_11  and  CZ_12 
       I    between atoms: CZ_12  and  NH1_13 

>  <TORSDO>
F 6

$$$$
ARG
 OpenBabel06191816033D

 27 26  0  0  1  0  0  0  0  0999 V2000
    0.7860    3.2490    2.4570 C   0  0  0  0  0  0  0  0  0  0  0  0
    1.4840    2.2160    3.3550 C   0  0  0  0  0  0  0  0  0  0  0  0
    2.3350    1.2280    2.5380 C   0  0  0  0  0  0  0  0  0  0  0  0
    1.7850   -0.2050    2.5210 C   0  0  1  0  0  0  0  0  0  0  0  0
    1.4270   -0.6700    1.1190 C   0  0  0  0  0  0  0  0  0  0  0  0
    0.6260   -0.0180    0.4510 O   0  0  0  0  0  0  0  0  0  0  0  0
    2.8480   -1.1410    3.0520 N   0  0  0  0  0  0  0  0  0  0  0  0
    3.5310   -0.6630    3.6570 H   0  0  0  0  0  0  0  0  0  0  0  0
    2.3780   -1.8330    3.6730 H   0  0  0  0  0  0  0  0  0  0  0  0
    3.3610   -1.6810    2.3440 H   0  0  0  0  0  0  0  0  0  0  0  0
   -0.2710    2.6320    1.6420 N   0  0  0  0  0  0  0  0  0  0  0  0
   -1.5660    3.0170    1.6610 C   0  0  0  0  0  0  0  0  0  0  0  0
   -1.9960    4.0100    2.4420 N   0  0  0  0  0  0  0  0  0  0  0  0
   -2.4500    2.3920    0.8790 N   0  0  0  0  0  0  0  0  0  0  0  0
   -2.9710    4.2910    2.4490 H   0  0  0  0  0  0  0  0  0  0  0  0
   -1.3790    4.5230    3.0560 H   0  0  0  0  0  0  0  0  0  0  0  0
   -2.1960    1.6330    0.2590 H   0  0  0  0  0  0  0  0  0  0  0  0
   -3.4290    2.6590    0.8730 H   0  0  0  0  0  0  0  0  0  0  0  0
   -0.0460    1.8670    1.0150 H   0  0  0  0  0  0  0  0  0  0  0  0
    0.3508    4.0074    3.0737 H   0  0  0  0  0  0  0  0  0  0  0  0
    1.5171    3.6663    1.7965 H   0  0  0  0  0  0  0  0  0  0  0  0
    0.7402    1.6679    3.8947 H   0  0  0  0  0  0  0  0  0  0  0  0
    2.1349    2.7420    4.0218 H   0  0  0  0  0  0  0  0  0  0  0  0
    2.3847    1.5812    1.5292 H   0  0  0  0  0  0  0  0  0  0  0  0
    3.2954    1.1851    3.0077 H   0  0  0  0  0  0  0  0  0  0  0  0
    0.8997   -0.2144    3.1219 H   0  0  0  0  0  0  0  0  0  0  0  0
    1.8527   -1.5261    0.7305 H   0  0  0  0  0  0  0  0  0  0  0  0
  1  2  1  0  0  0  0
  1 20  1  0  0  0  0
  1 21  1  0  0  0  0
  2 22  1  0  0  0  0
  2 23  1  0  0  0  0
  3  2  1  0  0  0  0
  3 24  1  0  0  0  0
  3 25  1  0  0  0  0
  4  3  1  0  0  0  0
  4  7  1  0  0  0  0
  4 26  1  1  0  0  0
  5  4  1  0  0  0  0
  5 27  1  0  0  0  0
  6  5  2  0  0  0  0
  7  8  1  0  0  0  0
  7  9  1  0  0  0  0
 10  7  1  0  0  0  0
 11 12  1  0  0  0  0
 11  1  1  0  0  0  0
 12 13  1  0  0  0  0
 13 15  1  0  0  0  0
 13 16  1  0  0  0  0
 14 12  2  0  0  0  0
 17 14  1  0  0  0  0
 18 14  1  0  0  0  0
 19 11  1  0  0  0  0
M  END
>  <ODEL 1>
2

>  <REMARK>
 VINA RESULT:      -3.8      2.437      3.243
  6 active torsions:
  status: ('A' for Active; 'I' for Inactive)
    1  A    between atoms: CA_5  and  N_1 
    2  A    between atoms: CA_5  and  C_6 
    3  A    between atoms: CA_5  and  CB_8 
    4  A    between atoms: CB_8  and  CG_9 
    5  A    between atoms: CG_9  and  CD_10 
    6  A    between atoms: CD_10  and  NE_11 
       I    between atoms: NE_11  and  CZ_12 
       I    between atoms: CZ_12  and  NH1_13 

>  <TORSDO>
F 6

$$$$
ARG
 OpenBabel06191816033D

 27 26  0  0  1  0  0  0  0  0999 V2000
   -1.0800   -3.4000    1.7550 C   0  0  0  0  0  0  0  0  0  0  0  0
   -1.1240   -4.3960    0.5850 C   0  0  0  0  0  0  0  0  0  0  0  0
   -2.5150   -4.4520   -0.0690 C   0  0  0  0  0  0  0  0  0  0  0  0
   -2.5410   -3.9630   -1.5250 C   0  0  1  0  0  0  0  0  0  0  0  0
   -3.6180   -2.9190   -1.7640 C   0  0  0  0  0  0  0  0  0  0  0  0
   -4.0030   -2.6970   -2.9110 O   0  0  0  0  0  0  0  0  0  0  0  0
   -1.2080   -3.3230   -1.8470 N   0  0  0  0  0  0  0  0  0  0  0  0
   -1.3100   -2.3980   -2.2890 H   0  0  0  0  0  0  0  0  0  0  0  0
   -0.7220   -3.1370   -0.9440 H   0  0  0  0  0  0  0  0  0  0  0  0
   -0.5670   -3.8880   -2.4160 H   0  0  0  0  0  0  0  0  0  0  0  0
   -0.1990   -2.2600    1.4610 N   0  0  0  0  0  0  0  0  0  0  0  0
   -0.6270   -1.0790    0.9640 C   0  0  0  0  0  0  0  0  0  0  0  0
   -1.9130   -0.8530    0.6900 N   0  0  0  0  0  0  0  0  0  0  0  0
    0.2560   -0.1030    0.7340 N   0  0  0  0  0  0  0  0  0  0  0  0
   -2.2240    0.0380    0.3150 H   0  0  0  0  0  0  0  0  0  0  0  0
   -2.6300   -1.5490    0.8410 H   0  0  0  0  0  0  0  0  0  0  0  0
    1.2460   -0.2020    0.9200 H   0  0  0  0  0  0  0  0  0  0  0  0
   -0.0370    0.7940    0.3600 H   0  0  0  0  0  0  0  0  0  0  0  0
    0.7980   -2.3320    1.6340 H   0  0  0  0  0  0  0  0  0  0  0  0
   -0.7173   -3.9037    2.6266 H   0  0  0  0  0  0  0  0  0  0  0  0
   -2.0698   -3.0263    1.9144 H   0  0  0  0  0  0  0  0  0  0  0  0
   -0.4075   -4.0967   -0.1512 H   0  0  0  0  0  0  0  0  0  0  0  0
   -0.8990   -5.3689    0.9693 H   0  0  0  0  0  0  0  0  0  0  0  0
   -2.8559   -5.4661   -0.0485 H   0  0  0  0  0  0  0  0  0  0  0  0
   -3.1466   -3.7936    0.4900 H   0  0  0  0  0  0  0  0  0  0  0  0
   -2.7433   -4.8119   -2.1442 H   0  0  0  0  0  0  0  0  0  0  0  0
   -4.0238   -2.3997   -0.9699 H   0  0  0  0  0  0  0  0  0  0  0  0
  1 20  1  0  0  0  0
  1 21  1  0  0  0  0
  2  1  1  0  0  0  0
  2 22  1  0  0  0  0
  2 23  1  0  0  0  0
  3  2  1  0  0  0  0
  3 24  1  0  0  0  0
  3 25  1  0  0  0  0
  4  3  1  0  0  0  0
  4 26  1  6  0  0  0
  5  4  1  0  0  0  0
  5 27  1  0  0  0  0
  6  5  2  0  0  0  0
  7  4  1  0  0  0  0
  7  9  1  0  0  0  0
  8  7  1  0  0  0  0
 10  7  1  0  0  0  0
 11 19  1  0  0  0  0
 11  1  1  0  0  0  0
 12 11  1  0  0  0  0
 13 16  1  0  0  0  0
 13 12  2  0  0  0  0
 14 17  1  0  0  0  0
 14 12  1  0  0  0  0
 15 13  1  0  0  0  0
 18 14  1  0  0  0  0
M  END
>  <ODEL 1>
3

>  <REMARK>
 VINA RESULT:      -3.7      3.200      4.226
  6 active torsions:
  status: ('A' for Active; 'I' for Inactive)
    1  A    between atoms: CA_5  and  N_1 
    2  A    between atoms: CA_5  and  C_6 
    3  A    between atoms: CA_5  and  CB_8 
    4  A    between atoms: CB_8  and  CG_9 
    5  A    between atoms: CG_9  and  CD_10 
    6  A    between atoms: CD_10  and  NE_11 
       I    between atoms: NE_11  and  CZ_12 
       I    between atoms: CZ_12  and  NH1_13 

>  <TORSDO>
F 6

$$$$
ARG
 OpenBabel06191816033D

 27 26  0  0  1  0  0  0  0  0999 V2000
   -3.1880   -1.3020    1.5240 C   0  0  0  0  0  0  0  0  0  0  0  0
   -3.5310   -2.7710    1.2330 C   0  0  0  0  0  0  0  0  0  0  0  0
   -4.6300   -2.9030    0.1650 C   0  0  0  0  0  0  0  0  0  0  0  0
   -4.2230   -3.7500   -1.0490 C   0  0  1  0  0  0  0  0  0  0  0  0
   -3.6720   -2.9040   -2.1850 C   0  0  0  0  0  0  0  0  0  0  0  0
   -4.3770   -2.6730   -3.1660 O   0  0  0  0  0  0  0  0  0  0  0  0
   -3.1330   -4.7110   -0.6290 N   0  0  0  0  0  0  0  0  0  0  0  0
   -3.2690   -5.0700    0.3270 H   0  0  0  0  0  0  0  0  0  0  0  0
   -3.2000   -5.5510   -1.2420 H   0  0  0  0  0  0  0  0  0  0  0  0
   -2.1720   -4.3600   -0.7120 H   0  0  0  0  0  0  0  0  0  0  0  0
   -4.1790   -0.6820    2.4170 N   0  0  0  0  0  0  0  0  0  0  0  0
   -4.2840    0.6490    2.6260 C   0  0  0  0  0  0  0  0  0  0  0  0
   -3.4740    1.5240    2.0270 N   0  0  0  0  0  0  0  0  0  0  0  0
   -5.2230    1.1120    3.4560 N   0  0  0  0  0  0  0  0  0  0  0  0
   -3.5610    2.5220    2.1920 H   0  0  0  0  0  0  0  0  0  0  0  0
   -2.7450    1.2390    1.3890 H   0  0  0  0  0  0  0  0  0  0  0  0
   -5.8730    0.5080    3.9420 H   0  0  0  0  0  0  0  0  0  0  0  0
   -5.3240    2.1060    3.6330 H   0  0  0  0  0  0  0  0  0  0  0  0
   -4.8410   -1.2630    2.9200 H   0  0  0  0  0  0  0  0  0  0  0  0
   -3.1656   -0.7611    0.6011 H   0  0  0  0  0  0  0  0  0  0  0  0
   -2.2344   -1.2702    2.0083 H   0  0  0  0  0  0  0  0  0  0  0  0
   -2.6501   -3.2697    0.8863 H   0  0  0  0  0  0  0  0  0  0  0  0
   -3.8934   -3.2123    2.1379 H   0  0  0  0  0  0  0  0  0  0  0  0
   -5.4872   -3.3552    0.6185 H   0  0  0  0  0  0  0  0  0  0  0  0
   -4.8282   -1.9164   -0.1986 H   0  0  0  0  0  0  0  0  0  0  0  0
   -5.1001   -4.2572   -1.3931 H   0  0  0  0  0  0  0  0  0  0  0  0
   -2.7131   -2.5260   -2.1336 H   0  0  0  0  0  0  0  0  0  0  0  0
  1 11  1  0  0  0  0
  1 20  1  0  0  0  0
  1 21  1  0  0  0  0
  2  1  1  0  0  0  0
  2 22  1  0  0  0  0
  2 23  1  0  0  0  0
  3  2  1  0  0  0  0
  3 24  1  0  0  0  0
  3 25  1  0  0  0  0
  4  7  1  0  0  0  0
  4  3  1  0  0  0  0
  4 26  1  6  0  0  0
  5  4  1  0  0  0  0
  5 27  1  0  0  0  0
  6  5  2  0  0  0  0
  7  8  1  0  0  0  0
  9  7  1  0  0  0  0
 10  7  1  0  0  0  0
 11 12  1  0  0  0  0
 11 19  1  0  0  0  0
 12 14  1  0  0  0  0
 13 15  1  0  0  0  0
 13 12  2  0  0  0  0
 14 18  1  0  0  0  0
 14 17  1  0  0  0  0
 16 13  1  0  0  0  0
M  END
>  <ODEL 1>
4

>  <REMARK>
 VINA RESULT:      -3.6      3.405      4.030
  6 active torsions:
  status: ('A' for Active; 'I' for Inactive)
    1  A    between atoms: CA_5  and  N_1 
    2  A    between atoms: CA_5  and  C_6 
    3  A    between atoms: CA_5  and  CB_8 
    4  A    between atoms: CB_8  and  CG_9 
    5  A    between atoms: CG_9  and  CD_10 
    6  A    between atoms: CD_10  and  NE_11 
       I    between atoms: NE_11  and  CZ_12 
       I    between atoms: CZ_12  and  NH1_13 

>  <TORSDO>
F 6

$$$$
ARG
 OpenBabel06191816033D

 27 26  0  0  1  0  0  0  0  0999 V2000
    0.4330    0.3960    2.0830 C   0  0  0  0  0  0  0  0  0  0  0  0
    1.6770    0.0380    1.2560 C   0  0  0  0  0  0  0  0  0  0  0  0
    2.8730   -0.3330    2.1490 C   0  0  0  0  0  0  0  0  0  0  0  0
    4.2030    0.2940    1.7040 C   0  0  1  0  0  0  0  0  0  0  0  0
    4.0970    1.7980    1.5130 C   0  0  0  0  0  0  0  0  0  0  0  0
    4.5430    2.3110    0.4880 O   0  0  0  0  0  0  0  0  0  0  0  0
    5.2420    0.0440    2.7750 N   0  0  0  0  0  0  0  0  0  0  0  0
    5.0500    0.5660    3.6420 H   0  0  0  0  0  0  0  0  0  0  0  0
    5.1780   -0.9600    3.0470 H   0  0  0  0  0  0  0  0  0  0  0  0
    6.2160    0.2140    2.4990 H   0  0  0  0  0  0  0  0  0  0  0  0
   -0.1840    1.6480    1.6180 N   0  0  0  0  0  0  0  0  0  0  0  0
   -1.5010    1.7940    1.3570 C   0  0  0  0  0  0  0  0  0  0  0  0
   -2.3640    0.7860    1.5010 N   0  0  0  0  0  0  0  0  0  0  0  0
   -1.9630    2.9760    0.9400 N   0  0  0  0  0  0  0  0  0  0  0  0
   -3.3530    0.9060    1.3010 H   0  0  0  0  0  0  0  0  0  0  0  0
   -2.0800   -0.1320    1.8120 H   0  0  0  0  0  0  0  0  0  0  0  0
   -1.3670    3.7840    0.8120 H   0  0  0  0  0  0  0  0  0  0  0  0
   -2.9470    3.1140    0.7350 H   0  0  0  0  0  0  0  0  0  0  0  0
    0.3900    2.4730    1.4770 H   0  0  0  0  0  0  0  0  0  0  0  0
    0.7181    0.5091    3.1081 H   0  0  0  0  0  0  0  0  0  0  0  0
   -0.2822   -0.3918    1.9702 H   0  0  0  0  0  0  0  0  0  0  0  0
    1.9445    0.8796    0.6518 H   0  0  0  0  0  0  0  0  0  0  0  0
    1.4392   -0.8118    0.6508 H   0  0  0  0  0  0  0  0  0  0  0  0
    2.9828   -1.3973    2.1393 H   0  0  0  0  0  0  0  0  0  0  0  0
    2.6612    0.0504    3.1253 H   0  0  0  0  0  0  0  0  0  0  0  0
    4.4698   -0.1524    0.7689 H   0  0  0  0  0  0  0  0  0  0  0  0
    3.6542    2.3843    2.2377 H   0  0  0  0  0  0  0  0  0  0  0  0
  1 20  1  0  0  0  0
  1 21  1  0  0  0  0
  2  1  1  0  0  0  0
  2  3  1  0  0  0  0
  2 22  1  0  0  0  0
  2 23  1  0  0  0  0
  3 24  1  0  0  0  0
  3 25  1  0  0  0  0
  4  3  1  0  0  0  0
  4  7  1  0  0  0  0
  4 26  1  6  0  0  0
  5  4  1  0  0  0  0
  5 27  1  0  0  0  0
  6  5  2  0  0  0  0
  7  9  1  0  0  0  0
  7  8  1  0  0  0  0
 10  7  1  0  0  0  0
 11  1  1  0  0  0  0
 12 13  1  0  0  0  0
 12 11  1  0  0  0  0
 13 16  1  0  0  0  0
 14 12  2  0  0  0  0
 15 13  1  0  0  0  0
 17 14  1  0  0  0  0
 18 14  1  0  0  0  0
 19 11  1  0  0  0  0
M  END
>  <ODEL 1>
5

>  <REMARK>
 VINA RESULT:      -3.6      3.315      4.054
  6 active torsions:
  status: ('A' for Active; 'I' for Inactive)
    1  A    between atoms: CA_5  and  N_1 
    2  A    between atoms: CA_5  and  C_6 
    3  A    between atoms: CA_5  and  CB_8 
    4  A    between atoms: CB_8  and  CG_9 
    5  A    between atoms: CG_9  and  CD_10 
    6  A    between atoms: CD_10  and  NE_11 
       I    between atoms: NE_11  and  CZ_12 
       I    between atoms: CZ_12  and  NH1_13 

>  <TORSDO>
F 6

$$$$
ARG
 OpenBabel06191816033D

 27 26  0  0  1  0  0  0  0  0999 V2000
   -0.1030    0.9130    1.9540 C   0  0  0  0  0  0  0  0  0  0  0  0
    0.9390    0.4570    0.9210 C   0  0  0  0  0  0  0  0  0  0  0  0
    2.1220   -0.2720    1.5820 C   0  0  0  0  0  0  0  0  0  0  0  0
    1.8060   -0.8410    2.9730 C   0  0  1  0  0  0  0  0  0  0  0  0
    1.3340   -2.2840    2.9140 C   0  0  0  0  0  0  0  0  0  0  0  0
    1.4280   -2.9940    3.9140 O   0  0  0  0  0  0  0  0  0  0  0  0
    3.0680   -0.8110    3.8090 N   0  0  0  0  0  0  0  0  0  0  0  0
    3.6360    0.0310    3.6380 H   0  0  0  0  0  0  0  0  0  0  0  0
    2.7820   -0.7430    4.8080 H   0  0  0  0  0  0  0  0  0  0  0  0
    3.6740   -1.6360    3.7310 H   0  0  0  0  0  0  0  0  0  0  0  0
   -0.3900    2.3510    1.8340 N   0  0  0  0  0  0  0  0  0  0  0  0
   -1.5880    2.8570    1.4710 C   0  0  0  0  0  0  0  0  0  0  0  0
   -2.6290    2.0720    1.1830 N   0  0  0  0  0  0  0  0  0  0  0  0
   -1.7470    4.1810    1.3950 N   0  0  0  0  0  0  0  0  0  0  0  0
   -3.5250    2.4640    0.9100 H   0  0  0  0  0  0  0  0  0  0  0  0
   -2.5750    1.0640    1.2220 H   0  0  0  0  0  0  0  0  0  0  0  0
   -1.0040    4.8370    1.6020 H   0  0  0  0  0  0  0  0  0  0  0  0
   -2.6360    4.5900    1.1240 H   0  0  0  0  0  0  0  0  0  0  0  0
    0.3370    3.0300    2.0320 H   0  0  0  0  0  0  0  0  0  0  0  0
    0.2717    0.7143    2.9364 H   0  0  0  0  0  0  0  0  0  0  0  0
   -1.0100    0.3743    1.7752 H   0  0  0  0  0  0  0  0  0  0  0  0
    0.4690   -0.2064    0.2254 H   0  0  0  0  0  0  0  0  0  0  0  0
    1.3196    1.3270    0.4279 H   0  0  0  0  0  0  0  0  0  0  0  0
    2.9327    0.4198    1.6776 H   0  0  0  0  0  0  0  0  0  0  0  0
    2.3628   -1.1043    0.9542 H   0  0  0  0  0  0  0  0  0  0  0  0
    1.0255   -0.2418    3.3934 H   0  0  0  0  0  0  0  0  0  0  0  0
    0.9373   -2.6657    2.0411 H   0  0  0  0  0  0  0  0  0  0  0  0
  1 20  1  0  0  0  0
  1 21  1  0  0  0  0
  2  3  1  0  0  0  0
  2  1  1  0  0  0  0
  2 22  1  0  0  0  0
  2 23  1  0  0  0  0
  3  4  1  0  0  0  0
  3 24  1  0  0  0  0
  3 25  1  0  0  0  0
  4  7  1  0  0  0  0
  4 26  1  1  0  0  0
  5  4  1  0  0  0  0
  5  6  2  0  0  0  0
  5 27  1  0  0  0  0
  7  9  1  0  0  0  0
  8  7  1  0  0  0  0
 10  7  1  0  0  0  0
 11  1  1  0  0  0  0
 11 19  1  0  0  0  0
 12 11  1  0  0  0  0
 13 16  1  0  0  0  0
 13 12  2  0  0  0  0
 14 12  1  0  0  0  0
 14 17  1  0  0  0  0
 15 13  1  0  0  0  0
 18 14  1  0  0  0  0
M  END
>  <ODEL 1>
6

>  <REMARK>
 VINA RESULT:      -3.6      2.865      3.267
  6 active torsions:
  status: ('A' for Active; 'I' for Inactive)
    1  A    between atoms: CA_5  and  N_1 
    2  A    between atoms: CA_5  and  C_6 
    3  A    between atoms: CA_5  and  CB_8 
    4  A    between atoms: CB_8  and  CG_9 
    5  A    between atoms: CG_9  and  CD_10 
    6  A    between atoms: CD_10  and  NE_11 
       I    between atoms: NE_11  and  CZ_12 
       I    between atoms: CZ_12  and  NH1_13 

>  <TORSDO>
F 6

$$$$
ARG
 OpenBabel06191816033D

 27 26  0  0  1  0  0  0  0  0999 V2000
   -1.9940   -5.0060   -1.3350 C   0  0  0  0  0  0  0  0  0  0  0  0
   -1.0720   -6.2240   -1.4990 C   0  0  0  0  0  0  0  0  0  0  0  0
   -1.8570   -7.5460   -1.4740 C   0  0  0  0  0  0  0  0  0  0  0  0
   -1.0690   -8.7520   -2.0070 C   0  0  1  0  0  0  0  0  0  0  0  0
   -0.9430   -9.8610   -0.9750 C   0  0  0  0  0  0  0  0  0  0  0  0
   -0.0640   -9.7930   -0.1180 O   0  0  0  0  0  0  0  0  0  0  0  0
   -1.8020   -9.3240   -3.2010 N   0  0  0  0  0  0  0  0  0  0  0  0
   -2.2950  -10.2000   -2.9800 H   0  0  0  0  0  0  0  0  0  0  0  0
   -2.5540   -8.6510   -3.4610 H   0  0  0  0  0  0  0  0  0  0  0  0
   -1.2340   -9.4720   -4.0440 H   0  0  0  0  0  0  0  0  0  0  0  0
   -1.2620   -3.8400   -0.8160 N   0  0  0  0  0  0  0  0  0  0  0  0
   -1.8000   -2.6100   -0.6710 C   0  0  0  0  0  0  0  0  0  0  0  0
   -3.0670   -2.3510   -1.0010 N   0  0  0  0  0  0  0  0  0  0  0  0
   -1.0510   -1.6160   -0.1860 N   0  0  0  0  0  0  0  0  0  0  0  0
   -3.4620   -1.4220   -0.8890 H   0  0  0  0  0  0  0  0  0  0  0  0
   -3.6870   -3.0570   -1.3720 H   0  0  0  0  0  0  0  0  0  0  0  0
   -0.0840   -1.7400    0.0860 H   0  0  0  0  0  0  0  0  0  0  0  0
   -1.4280   -0.6820   -0.0680 H   0  0  0  0  0  0  0  0  0  0  0  0
   -0.2910   -3.9350   -0.5380 H   0  0  0  0  0  0  0  0  0  0  0  0
   -2.7800   -5.2546   -0.6529 H   0  0  0  0  0  0  0  0  0  0  0  0
   -2.3891   -4.7528   -2.2966 H   0  0  0  0  0  0  0  0  0  0  0  0
   -0.5577   -6.1449   -2.4339 H   0  0  0  0  0  0  0  0  0  0  0  0
   -0.3843   -6.2316   -0.6793 H   0  0  0  0  0  0  0  0  0  0  0  0
   -2.1402   -7.7498   -0.4625 H   0  0  0  0  0  0  0  0  0  0  0  0
   -2.6998   -7.4173   -2.1205 H   0  0  0  0  0  0  0  0  0  0  0  0
   -0.0887   -8.4064   -2.2609 H   0  0  0  0  0  0  0  0  0  0  0  0
   -1.5902  -10.6647   -0.9936 H   0  0  0  0  0  0  0  0  0  0  0  0
  1 11  1  0  0  0  0
  1 20  1  0  0  0  0
  1 21  1  0  0  0  0
  2  3  1  0  0  0  0
  2  1  1  0  0  0  0
  2 22  1  0  0  0  0
  2 23  1  0  0  0  0
  3 24  1  0  0  0  0
  3 25  1  0  0  0  0
  4  3  1  0  0  0  0
  4  5  1  0  0  0  0
  4 26  1  6  0  0  0
  5  6  2  0  0  0  0
  5 27  1  0  0  0  0
  7  8  1  0  0  0  0
  7  4  1  0  0  0  0
  9  7  1  0  0  0  0
 10  7  1  0  0  0  0
 11 12  1  0  0  0  0
 11 19  1  0  0  0  0
 12 14  1  0  0  0  0
 13 15  1  0  0  0  0
 13 12  2  0  0  0  0
 14 18  1  0  0  0  0
 14 17  1  0  0  0  0
 16 13  1  0  0  0  0
M  END
>  <ODEL 1>
7

>  <REMARK>
 VINA RESULT:      -3.5      5.814      7.084
  6 active torsions:
  status: ('A' for Active; 'I' for Inactive)
    1  A    between atoms: CA_5  and  N_1 
    2  A    between atoms: CA_5  and  C_6 
    3  A    between atoms: CA_5  and  CB_8 
    4  A    between atoms: CB_8  and  CG_9 
    5  A    between atoms: CG_9  and  CD_10 
    6  A    between atoms: CD_10  and  NE_11 
       I    between atoms: NE_11  and  CZ_12 
       I    between atoms: CZ_12  and  NH1_13 

>  <TORSDO>
F 6

$$$$
ARG
 OpenBabel06191816033D

 27 26  0  0  1  0  0  0  0  0999 V2000
   -1.6460   -7.9830   -0.3350 C   0  0  0  0  0  0  0  0  0  0  0  0
   -1.6870   -6.9240   -1.4480 C   0  0  0  0  0  0  0  0  0  0  0  0
   -1.2570   -5.5380   -0.9370 C   0  0  0  0  0  0  0  0  0  0  0  0
   -1.7450   -4.3720   -1.8090 C   0  0  1  0  0  0  0  0  0  0  0  0
   -3.2200   -4.0720   -1.6000 C   0  0  0  0  0  0  0  0  0  0  0  0
   -3.7930   -3.2930   -2.3600 O   0  0  0  0  0  0  0  0  0  0  0  0
   -0.9710   -3.1270   -1.4350 N   0  0  0  0  0  0  0  0  0  0  0  0
   -1.1530   -2.3400   -2.0740 H   0  0  0  0  0  0  0  0  0  0  0  0
   -1.3200   -2.8060   -0.5070 H   0  0  0  0  0  0  0  0  0  0  0  0
    0.0460   -3.2440   -1.3430 H   0  0  0  0  0  0  0  0  0  0  0  0
   -1.1160   -9.2630   -0.8270 N   0  0  0  0  0  0  0  0  0  0  0  0
   -0.4420  -10.1500   -0.0620 C   0  0  0  0  0  0  0  0  0  0  0  0
   -0.1970   -9.9230    1.2300 N   0  0  0  0  0  0  0  0  0  0  0  0
   -0.0030  -11.2880   -0.6050 N   0  0  0  0  0  0  0  0  0  0  0  0
    0.3110  -10.5960    1.7960 H   0  0  0  0  0  0  0  0  0  0  0  0
   -0.5010   -9.0830    1.7020 H   0  0  0  0  0  0  0  0  0  0  0  0
   -0.1550  -11.5280   -1.5760 H   0  0  0  0  0  0  0  0  0  0  0  0
    0.5070  -11.9720   -0.0550 H   0  0  0  0  0  0  0  0  0  0  0  0
   -1.2500   -9.5280   -1.7970 H   0  0  0  0  0  0  0  0  0  0  0  0
   -2.6381   -8.1369    0.0349 H   0  0  0  0  0  0  0  0  0  0  0  0
   -1.0002   -7.6288    0.4411 H   0  0  0  0  0  0  0  0  0  0  0  0
   -1.0261   -7.2230   -2.2346 H   0  0  0  0  0  0  0  0  0  0  0  0
   -2.6952   -6.8501   -1.7986 H   0  0  0  0  0  0  0  0  0  0  0  0
   -1.6487   -5.4069    0.0501 H   0  0  0  0  0  0  0  0  0  0  0  0
   -0.1875   -5.5169   -0.9620 H   0  0  0  0  0  0  0  0  0  0  0  0
   -1.5935   -4.6519   -2.8306 H   0  0  0  0  0  0  0  0  0  0  0  0
   -3.7369   -4.5184   -0.8264 H   0  0  0  0  0  0  0  0  0  0  0  0
  1 20  1  0  0  0  0
  1 21  1  0  0  0  0
  2  3  1  0  0  0  0
  2  1  1  0  0  0  0
  2 22  1  0  0  0  0
  2 23  1  0  0  0  0
  3 24  1  0  0  0  0
  3 25  1  0  0  0  0
  4  5  1  0  0  0  0
  4  7  1  0  0  0  0
  4  3  1  0  0  0  0
  4 26  1  6  0  0  0
  5 27  1  0  0  0  0
  6  5  2  0  0  0  0
  7 10  1  0  0  0  0
  7  9  1  0  0  0  0
  8  7  1  0  0  0  0
 11  1  1  0  0  0  0
 11 12  1  0  0  0  0
 12 13  1  0  0  0  0
 13 16  1  0  0  0  0
 13 15  1  0  0  0  0
 14 12  2  0  0  0  0
 14 18  1  0  0  0  0
 17 14  1  0  0  0  0
 19 11  1  0  0  0  0
M  END
>  <ODEL 1>
8

>  <REMARK>
 VINA RESULT:      -3.5      5.812      9.107
  6 active torsions:
  status: ('A' for Active; 'I' for Inactive)
    1  A    between atoms: CA_5  and  N_1 
    2  A    between atoms: CA_5  and  C_6 
    3  A    between atoms: CA_5  and  CB_8 
    4  A    between atoms: CB_8  and  CG_9 
    5  A    between atoms: CG_9  and  CD_10 
    6  A    between atoms: CD_10  and  NE_11 
       I    between atoms: NE_11  and  CZ_12 
       I    between atoms: CZ_12  and  NH1_13 

>  <TORSDO>
F 6

$$$$
ARG
 OpenBabel06191816033D

 27 26  0  0  1  0  0  0  0  0999 V2000
   -1.1670    2.9120    1.3230 C   0  0  0  0  0  0  0  0  0  0  0  0
    0.3260    2.7570    1.6520 C   0  0  0  0  0  0  0  0  0  0  0  0
    0.9100    1.4580    1.0710 C   0  0  0  0  0  0  0  0  0  0  0  0
    0.3690    0.1800    1.7300 C   0  0  1  0  0  0  0  0  0  0  0  0
    0.5910   -1.0520    0.8690 C   0  0  0  0  0  0  0  0  0  0  0  0
   -0.1160   -1.2350   -0.1210 O   0  0  0  0  0  0  0  0  0  0  0  0
    1.1010   -0.0410    3.0360 N   0  0  0  0  0  0  0  0  0  0  0  0
    1.7490    0.7260    3.2610 H   0  0  0  0  0  0  0  0  0  0  0  0
    0.3920   -0.0260    3.8000 H   0  0  0  0  0  0  0  0  0  0  0  0
    1.6060   -0.9310    3.1190 H   0  0  0  0  0  0  0  0  0  0  0  0
   -1.5900    4.3190    1.3830 N   0  0  0  0  0  0  0  0  0  0  0  0
   -2.2400    4.8720    2.4300 C   0  0  0  0  0  0  0  0  0  0  0  0
   -2.5580    4.1650    3.5160 N   0  0  0  0  0  0  0  0  0  0  0  0
   -2.5790    6.1630    2.3870 N   0  0  0  0  0  0  0  0  0  0  0  0
   -3.0470    4.5900    4.2970 H   0  0  0  0  0  0  0  0  0  0  0  0
   -2.3310    3.1860    3.6120 H   0  0  0  0  0  0  0  0  0  0  0  0
   -2.3680    6.7610    1.5980 H   0  0  0  0  0  0  0  0  0  0  0  0
   -3.0680    6.6050    3.1580 H   0  0  0  0  0  0  0  0  0  0  0  0
   -1.3950    4.9400    0.6040 H   0  0  0  0  0  0  0  0  0  0  0  0
   -1.3463    2.5370    0.3370 H   0  0  0  0  0  0  0  0  0  0  0  0
   -1.7290    2.3618    2.0485 H   0  0  0  0  0  0  0  0  0  0  0  0
    0.8587    3.5894    1.2419 H   0  0  0  0  0  0  0  0  0  0  0  0
    0.4287    2.7195    2.7164 H   0  0  0  0  0  0  0  0  0  0  0  0
    1.9720    1.4794    1.1999 H   0  0  0  0  0  0  0  0  0  0  0  0
    0.6205    1.4218    0.0415 H   0  0  0  0  0  0  0  0  0  0  0  0
   -0.6830    0.3140    1.8721 H   0  0  0  0  0  0  0  0  0  0  0  0
    1.3295   -1.7304    1.1129 H   0  0  0  0  0  0  0  0  0  0  0  0
  1 11  1  0  0  0  0
  1  2  1  0  0  0  0
  1 20  1  0  0  0  0
  1 21  1  0  0  0  0
  2 22  1  0  0  0  0
  2 23  1  0  0  0  0
  3  2  1  0  0  0  0
  3  4  1  0  0  0  0
  3 24  1  0  0  0  0
  3 25  1  0  0  0  0
  4  7  1  0  0  0  0
  4 26  1  1  0  0  0
  5  4  1  0  0  0  0
  5 27  1  0  0  0  0
  6  5  2  0  0  0  0
  7 10  1  0  0  0  0
  7  8  1  0  0  0  0
  7  9  1  0  0  0  0
 11 12  1  0  0  0  0
 12 13  1  0  0  0  0
 13 16  1  0  0  0  0
 13 15  1  0  0  0  0
 14 12  2  0  0  0  0
 14 18  1  0  0  0  0
 17 14  1  0  0  0  0
 19 11  1  0  0  0  0
M  END
>  <ODEL 1>
9

>  <REMARK>
 VINA RESULT:      -3.5      2.324      3.076
  6 active torsions:
  status: ('A' for Active; 'I' for Inactive)
    1  A    between atoms: CA_5  and  N_1 
    2  A    between atoms: CA_5  and  C_6 
    3  A    between atoms: CA_5  and  CB_8 
    4  A    between atoms: CB_8  and  CG_9 
    5  A    between atoms: CG_9  and  CD_10 
    6  A    between atoms: CD_10  and  NE_11 
       I    between atoms: NE_11  and  CZ_12 
       I    between atoms: CZ_12  and  NH1_13 

>  <TORSDO>
F 6

$$$$
ARG
 OpenBabel06191816033D

 27 26  0  0  1  0  0  0  0  0999 V2000
   -1.1860    4.3900    4.9050 C   0  0  0  0  0  0  0  0  0  0  0  0
   -1.8340    3.0210    5.1640 C   0  0  0  0  0  0  0  0  0  0  0  0
   -1.4650    1.9970    4.0770 C   0  0  0  0  0  0  0  0  0  0  0  0
   -2.6470    1.5660    3.1970 C   0  0  1  0  0  0  0  0  0  0  0  0
   -2.2990    1.5750    1.7180 C   0  0  0  0  0  0  0  0  0  0  0  0
   -1.9430    2.6250    1.1860 O   0  0  0  0  0  0  0  0  0  0  0  0
   -3.0360    0.1500    3.5640 N   0  0  0  0  0  0  0  0  0  0  0  0
   -3.4850   -0.3510    2.7850 H   0  0  0  0  0  0  0  0  0  0  0  0
   -2.1580   -0.3780    3.7520 H   0  0  0  0  0  0  0  0  0  0  0  0
   -3.6250    0.0520    4.3990 H   0  0  0  0  0  0  0  0  0  0  0  0
   -1.2480    4.7570    3.4820 N   0  0  0  0  0  0  0  0  0  0  0  0
   -2.2720    5.4330    2.9160 C   0  0  0  0  0  0  0  0  0  0  0  0
   -3.3340    5.8250    3.6220 N   0  0  0  0  0  0  0  0  0  0  0  0
   -2.2300    5.7200    1.6120 N   0  0  0  0  0  0  0  0  0  0  0  0
   -4.0990    6.3320    3.1870 H   0  0  0  0  0  0  0  0  0  0  0  0
   -3.4270    5.6400    4.6110 H   0  0  0  0  0  0  0  0  0  0  0  0
   -1.4560    5.4570    1.0160 H   0  0  0  0  0  0  0  0  0  0  0  0
   -2.9850    6.2250    1.1600 H   0  0  0  0  0  0  0  0  0  0  0  0
   -0.4870    4.5030    2.8600 H   0  0  0  0  0  0  0  0  0  0  0  0
   -1.7014    5.1323    5.4780 H   0  0  0  0  0  0  0  0  0  0  0  0
   -0.1567    4.3331    5.1918 H   0  0  0  0  0  0  0  0  0  0  0  0
   -1.5005    2.6543    6.1123 H   0  0  0  0  0  0  0  0  0  0  0  0
   -2.8962    3.1492    5.1520 H   0  0  0  0  0  0  0  0  0  0  0  0
   -0.7169    2.4305    3.4466 H   0  0  0  0  0  0  0  0  0  0  0  0
   -1.1201    1.1196    4.5830 H   0  0  0  0  0  0  0  0  0  0  0  0
   -3.4423    2.2616    3.3661 H   0  0  0  0  0  0  0  0  0  0  0  0
   -2.3609    0.7065    1.1641 H   0  0  0  0  0  0  0  0  0  0  0  0
  1  2  1  0  0  0  0
  1 20  1  0  0  0  0
  1 21  1  0  0  0  0
  2 22  1  0  0  0  0
  2 23  1  0  0  0  0
  3  2  1  0  0  0  0
  3 24  1  0  0  0  0
  3 25  1  0  0  0  0
  4  7  1  0  0  0  0
  4  3  1  0  0  0  0
  4 26  1  1  0  0  0
  5  4  1  0  0  0  0
  5 27  1  0  0  0  0
  6  5  2  0  0  0  0
  7  9  1  0  0  0  0
  7 10  1  0  0  0  0
  8  7  1  0  0  0  0
 11  1  1  0  0  0  0
 12 11  1  0  0  0  0
 12 13  1  0  0  0  0
 13 16  1  0  0  0  0
 14 12  2  0  0  0  0
 15 13  1  0  0  0  0
 17 14  1  0  0  0  0
 18 14  1  0  0  0  0
 19 11  1  0  0  0  0
M  END
>  <ODEL 2>
0

>  <REMARK>
 VINA RESULT:      -3.5      3.184      4.232
  6 active torsions:
  status: ('A' for Active; 'I' for Inactive)
    1  A    between atoms: CA_5  and  N_1 
    2  A    between atoms: CA_5  and  C_6 
    3  A    between atoms: CA_5  and  CB_8 
    4  A    between atoms: CB_8  and  CG_9 
    5  A    between atoms: CG_9  and  CD_10 
    6  A    between atoms: CD_10  and  NE_11 
       I    between atoms: NE_11  and  CZ_12 
       I    between atoms: CZ_12  and  NH1_13 

>  <TORSDO>
F 6

$$$$
